71
Coordinates from ORCA-job fe4_oxo_dmm_3-2
  Fe  0.02777807301124      0.01931266835546     -0.07295461757991
  O   0.01286822710305      0.00674056435736      1.57654999761252
  O   -0.39836401116332     -5.91117065987790     -1.07647185984643
  O   -5.92130375794968      0.03202292187191     -1.04697261547926
  N   0.06359925530454      0.04806617705609     -2.11568529470366
  N   1.93818031002003      0.02202816370741     -0.29030090968122
  N   -1.87749709325969      0.05135664770904     -0.31427892756815
  N   0.10936583882077      1.92866559334221     -0.29525367179639
  C   1.13549142072572      1.07785576856130     -2.25406725762746
  H   1.39378875522070      1.32291534276253     -3.29409603113028
  C   2.86027663263500     -0.45854825119887      0.55373385364842
  H   2.48855937406630     -0.87752151519099      1.48870021417493
  C   -0.39810666584448     -4.10938907512559      0.48136776667307
  N   -0.03199499501375     -1.88841635442500     -0.31253945985017
  C   3.63202104695718      0.60520283414450     -1.86477037323101
  H   3.89504483835600      1.03000671519709     -2.83282276929067
  C   -0.33439258693140      2.87199422644978      0.54537427755266
  H   -0.76891220721200      2.52109883350015      1.48128203673021
  C   0.65484050475805      2.27454923762720     -1.48216650001248
  C   -0.22718544312257     -4.57573200650122     -0.82736804510055
  C   2.30959880274967      0.55092703069908     -1.47718297187976
  C   -2.74689326899396     -0.13661653094792      0.69109336781898
  H   -2.30598429371841     -0.26765152096376      1.67944780571955
  C   0.76391951187960      3.59243337367959     -1.87351807344060
  H   1.20044245931914      3.83505777881105     -2.84173773245534
  C   -1.26846554579353      0.48150144902644     -2.60724880536856
  H   -1.50110179139783     -0.01899770454157     -3.55654055238436
  H   -1.23930092726327      1.56085270175670     -2.82394250077764
  C   0.01887276764197     -3.69154635640264     -1.88298583421110
  C   0.31759361357001      4.58645812203057     -1.00596830544095
  H   0.39613752357080      5.63819091063159     -1.28196081331656
  C   0.45086297224783     -1.30184544285756     -2.59728358149489
  H   1.53649919267048     -1.31927164054729     -2.78037586848555
  H   -0.02780946731097     -1.51322354261924     -3.56269550799962
  C   -4.57097918586749     -0.00334823146685     -0.82707783446093
  C   -0.23208694704319      4.21738178358950      0.21796654744313
  H   -0.59067812835188      4.96294727052095      0.92611325260656
  C   -2.32115169996328      0.21909725859764     -1.57651832816891
  C   4.20962813498047     -0.41277567580601      0.22982975857397
  H   4.93785260343796     -0.80119047183674      0.94029598234885
  C   -4.11507058943053     -0.16986085479330      0.48582819366130
  C   -3.67594636320376      0.20019205288006     -1.88266705365473
  C   0.11681128053501     -2.34009409927466     -1.57461077626588
  C   -0.29424233044039     -2.74455408354311      0.68712083926306
  H   -0.41962093391772     -2.29738062272726      1.67337517281550
  C   4.60440784746147      0.11953155690249     -0.99380147037057
  H   5.65922838309081      0.15380293525961     -1.26708919894053
  C   -4.14837886701914      0.43761082010565     -3.28387456273986
  H   -5.22221793956192      0.65383568500347     -3.29592562698723
  H   -3.96478762689968     -0.44285607828893     -3.91939268751754
  H   -3.62059735456819      1.28729919602931     -3.73906946326469
  C   0.16637359495668     -4.16849355158421     -3.29448903826075
  H   -0.05273637906470     -5.23841400658801     -3.36921294517773
  H   1.18641394383900     -3.99153455710433     -3.66759201710868
  H   -0.52417242107673     -3.62916685191683     -3.96003017186901
  C   0.83048017304674     -6.67401798577751     -1.09436844931784
  H   1.34746228491313     -6.59743239882877     -0.12608092575974
  H   1.49671886019942     -6.32381926543669     -1.89753045717817
  H   0.53812463648131     -7.71315013812889     -1.28005667266474
  C   -5.06106143365865     -0.36212602599395      1.62836640666768
  H   -5.76037448050777      0.48372902818065      1.69653693983147
  H   -4.51329311396139     -0.44646242794951      2.57470027818447
  H   -5.66654166066261     -1.26969881336140      1.49065104985785
  C   -0.70561342998789     -5.03392387829842      1.61618765841521
  H   0.12107613157576     -5.73816121752786      1.79041346903563
  H   -1.59880783169121     -5.63514702550138      1.39369237770775
  H   -0.87854036828025     -4.46811163578665      2.53962626589129
  C   -6.47445216930389     -1.20482756919833     -1.55475216318346
  H   -7.54526055317652     -1.02190922800337     -1.69396685001438
  H   -6.32295490346540     -2.01733976870617     -0.82808205505118
  H   -6.01376339206682     -1.47706940971767     -2.51611555512485
